[Format]      =  4.0
[Frequency]   =  0
[Precision]   =  1e-008
[MinAngle]    =  30
[Depth]       =  11.199999999999999
[LengthUnits] =  millimeters
[ProblemType] =  planar
[Coordinates] =  cartesian
[ACSolver]    =  0
[PrevSoln]    =  ""
[Comment]     =  "Add comments here."
[PointProps]   = 0
[BdryProps]   = 1
  <BeginBdry>
    <BdryName> = "Zero"
    <BdryType> = 0
    <A_0> = 0
    <A_1> = 0
    <A_2> = 0
    <Phi> = 0
    <c0> = 0
    <c0i> = 0
    <c1> = 0
    <c1i> = 0
    <Mu_ssd> = 0
    <Sigma_ssd> = 0
  <EndBdry>
[BlockProps]  = 3
  <BeginBlock>
    <BlockName> = "Air"
    <Mu_x> = 1
    <Mu_y> = 1
    <H_c> = 0
    <H_cAngle> = 0
    <J_re> = 0
    <J_im> = 0
    <Sigma> = 0
    <d_lam> = 0
    <Phi_h> = 0
    <Phi_hx> = 0
    <Phi_hy> = 0
    <LamType> = 0
    <LamFill> = 1
    <NStrands> = 0
    <WireD> = 0
    <BHPoints> = 0
  <EndBlock>
  <BeginBlock>
    <BlockName> = "M-36 Steel"
    <Mu_x> = 1616
    <Mu_y> = 1616
    <H_c> = 0
    <H_cAngle> = 0
    <J_re> = 0
    <J_im> = 0
    <Sigma> = 2
    <d_lam> = 0.63500000000000001
    <Phi_h> = 0
    <Phi_hx> = 0
    <Phi_hy> = 0
    <LamType> = 0
    <LamFill> = 0.97999999999999998
    <NStrands> = 0
    <WireD> = 0
    <BHPoints> = 47
      0	0
      0.050000000000000003	19.398586000000002
      0.10000000000000001	29.611086
      0.14999999999999999	36.311286000000003
      0.20000000000000001	41.398969999999998
      0.25	45.654680999999997
      0.29999999999999999	49.463585000000002
      0.34999999999999998	53.042856999999998
      0.40000000000000002	56.529325
      0.45000000000000001	60.018492000000002
      0.5	63.584023999999999
      0.55000000000000004	67.288555000000002
      0.59999999999999998	71.190393999999998
      0.65000000000000002	75.348315999999997
      0.69999999999999996	79.825601000000006
      0.75	84.694101000000003
      0.80000000000000004	90.039004000000006
      0.84999999999999998	95.965085000000002
      0.90000000000000002	102.60559499999999
      0.94999999999999996	110.135639
      1	118.793308
      1.05	128.91455500000001
      1.1000000000000001	140.99328499999999
      1.1499999999999999	155.78958700000001
      1.2	174.53384
      1.25	199.32994600000001
      1.3	233.989035
      1.3500000000000001	285.82186100000001
      1.3999999999999999	369.57162599999998
      1.45	515.788276
      1.5	785.78510400000005
      1.55	1282.7937979999999
      1.6000000000000001	2108.172454
      1.6499999999999999	3257.880122
      1.7	4726.4426309999999
      1.75	6512.0094010000003
      1.8	8720.2655529999993
      1.8500000000000001	11459.429228999999
      1.8999999999999999	14887.904936999999
      1.95	19350.577347999999
      2	26042.602019000002
      2.0499999999999998	39200.400310999998
      2.1000000000000001	65518.130312000001
      2.1499999999999999	100476.654669
      2.2000000000000002	136976.920182
      2.25	176029.81784199999
      2.2999999999999998	215228.81031199999
  <EndBlock>
  <BeginBlock>
    <BlockName> = "22 AWG"
    <Mu_x> = 1
    <Mu_y> = 1
    <H_c> = 0
    <H_cAngle> = 0
    <J_re> = 0
    <J_im> = 0
    <Sigma> = 58
    <d_lam> = 0
    <Phi_h> = 0
    <Phi_hx> = 0
    <Phi_hy> = 0
    <LamType> = 3
    <LamFill> = 1
    <NStrands> = 1
    <WireD> = 0.64399170069399603
    <BHPoints> = 0
  <EndBlock>
[CircuitProps]  = 2
  <BeginCircuit>
    <CircuitName> = "Bobina +"
    <TotalAmps_re> = 1
    <TotalAmps_im> = 0
    <CircuitType> = 1
  <EndCircuit>
  <BeginCircuit>
    <CircuitName> = "Bobina -"
    <TotalAmps_re> = -1
    <TotalAmps_im> = 0
    <CircuitType> = 1
  <EndCircuit>
[NumPoints] = 24
-20	46	0	0
-20	-20	0	0
37	-20	0	0
37	46	0	0
0	25.5	0	0
0	21.5	0	0
0	21	0	0
0	0	0	0
4	21	0	0
4	4	0	0
10	21	0	0
10	4	0	0
14	25.5	0	0
14	21.5	0	0
14	21	0	0
14	0	0	0
7	20	0	0
7	5	0	0
9	20	0	0
9	5	0	0
15	20	0	0
15	5	0	0
17	20	0	0
17	5	0	0
[NumSegments] = 24
0	1	-1	1	0	0
1	2	-1	1	0	0
3	2	-1	1	0	0
0	3	-1	1	0	0
4	12	-1	0	0	0
5	4	-1	0	0	0
12	13	-1	0	0	0
13	5	-1	0	0	0
6	7	-1	0	0	0
7	15	-1	0	0	0
15	14	-1	0	0	0
14	10	-1	0	0	0
10	11	-1	0	0	0
11	9	-1	0	0	0
9	8	-1	0	0	0
8	6	-1	0	0	0
16	17	-1	0	0	0
17	19	-1	0	0	0
19	18	-1	0	0	0
18	16	-1	0	0	0
20	21	-1	0	0	0
21	23	-1	0	0	0
23	22	-1	0	0	0
22	20	-1	0	0	0
[NumArcSegments] = 0
[NumHoles] = 0
[NumBlockLabels] = 5
-9	10	1	-1	0	0	0	1	0
8	12	3	1	2	0	0	-72	0
16	15	3	1	1	0	0	72	0
7	24	2	-1	0	0	0	1	0
2	10	2	-1	0	0	0	1	0
